# Molecule Name
# Created by GaussView 6.0.16
#

#
#

@<TRIPOS>MOLECULE
Molecule Name
5 4
SMALL
NO_CHARGES


@<TRIPOS>ATOM
1 C1     0.0667    -0.3155     0.0000 C
2 H2     0.4234    -1.3243     0.0000 H
3 H3     0.4234     0.1889    -0.8737 H
4 H4    -1.0033    -0.3155     0.0000 H
5 F5     0.5167     0.3209     1.1023 F
@<TRIPOS>BOND
1 1 2 1
2 1 3 1
3 1 4 1
4 1 5 1

# Substitute(entry=H2,center=C1)