# Title
# Created by GaussView 6.0.16
#

#
#

@<TRIPOS>MOLECULE
Molecule Name
18 18
SMALL
NO_CHARGES


@<TRIPOS>ATOM
1 C1    -2.4736    -1.5810     0.0000 C
2 C2    -0.9585    -1.5810     0.0000 C
3 C3    -0.4066    -0.1699     0.0000 C
4 C4    -0.9562     0.6346     1.1607 C
5 C5    -2.4713     0.6353     1.1602 C
6 C6    -3.0241    -0.7753     1.1589 C
7 H7     0.7120    -0.2039     0.0627 H
8 H8    -0.5859    -2.1266     0.9066 H
9 H9    -0.5832    -2.1308    -0.9019 H
10 H10    -2.8463    -1.1480    -0.9654 H
11 H11    -2.8492    -2.6352     0.0635 H
12 H12    -0.5837     0.1998     2.1253 H
13 H13    -0.5802     1.6888     1.0987 H
14 H14    -2.8467     1.1847     2.0623 H
15 H15    -2.8432     1.1819     0.2538 H
16 H16    -2.7581    -1.2810     2.1242 H
17 H17    -4.1427    -0.7403     1.0939 H
18 H18    -0.6752     0.3357    -0.9645 H
@<TRIPOS>BOND
1 1 2 1
2 1 6 1
3 1 11 1
4 1 10 1
5 2 3 1
6 2 8 1
7 2 9 1
8 3 4 1
9 3 7 1
10 3 18 1
11 4 5 1
12 4 12 1
13 4 13 1
14 5 6 1
15 5 14 1
16 5 15 1
17 6 17 1
18 6 16 1

# Substitute(entry=H7,center=C3)