# Molecule Name
# Created by GaussView 6.0.16
#

#
#

@<TRIPOS>MOLECULE
Molecule Name
18 18
SMALL
NO_CHARGES


@<TRIPOS>ATOM
1 C1    -2.4736    -1.5810     0.0000 C
2 C2    -0.9585    -1.5810     0.0000 C
3 C3    -0.4066    -0.1699     0.0000 C
4 C4    -0.9562     0.6346     1.1607 C
5 C5    -2.4713     0.6353     1.1602 C
6 C6    -3.0241    -0.7753     1.1589 C
7 H7    -4.1427    -0.7403     1.0939 H
8 F8    -2.9234     1.2970     2.2466 F
9 F9    -2.9188     1.2930     0.0695 F
10 F10    -0.5034     1.9042     1.0860 F
11 F11    -0.7299     0.4386    -1.1609 F
12 F12     0.9407    -0.2109     0.0755 F
13 F13    -0.5079     0.1113     2.3216 F
14 F14    -0.5101    -2.2376     1.0910 F
15 F15    -0.5065    -2.2431    -1.0862 F
16 F16    -2.9260    -2.8507     0.0765 F
17 F17    -2.9221    -1.0599    -1.1618 F
18 F18    -2.7040    -1.3839     2.3206 F
@<TRIPOS>BOND
1 1 2 1
2 1 6 1
3 1 16 1
4 1 17 1
5 2 3 1
6 2 14 1
7 2 15 1
8 3 4 1
9 3 11 1
10 3 12 1
11 4 5 1
12 4 10 1
13 4 13 1
14 5 6 1
15 5 8 1
16 5 9 1
17 6 7 1
18 6 18 1

# Substitute(entry=H7,center=C6)