# Molecule Name
# Created by GaussView 6.0.16
#

#
#

@<TRIPOS>MOLECULE
Molecule Name
8 7
SMALL
NO_CHARGES


@<TRIPOS>ATOM
1 C1    -0.7500    -0.1500     0.0000 C
2 H2    -0.3933    -1.1588     0.0000 H
3 H3    -0.3933     0.3544    -0.8737 H
4 H4    -1.8200    -0.1500     0.0000 H
5 C5    -0.2366     0.5759     1.2574 C
6 H6    -0.5917     1.5853     1.2564 H
7 H7    -0.5949     0.0727     2.1311 H
8 H8     0.8334     0.5742     1.2584 H
@<TRIPOS>BOND
1 1 2 1
2 1 3 1
3 1 4 1
4 1 5 1
5 5 6 1
6 5 7 1
7 5 8 1

# Substitute(entry=H6,center=C5)