# Molecule Name
# Created by GaussView 6.0.16
#

#
#

@<TRIPOS>MOLECULE
Molecule Name
11 10
SMALL
NO_CHARGES


@<TRIPOS>ATOM
1 C1    -0.7500    -0.1500     0.0000 C
2 H2    -0.3933     0.3544    -0.8737 H
3 H3    -1.8200    -0.1500     0.0000 H
4 C4    -0.2366     0.5759     1.2574 C
5 H5    -0.5917     1.5853     1.2564 H
6 H6    -0.5949     0.0727     2.1311 H
7 H7     0.8334     0.5742     1.2584 H
8 C8    -0.2366    -1.6019     0.0000 C
9 H9    -0.5929    -2.1062     0.8739 H
10 H10    -0.5937    -2.1064    -0.8734 H
11 H11     0.8334    -1.6019    -0.0005 H
@<TRIPOS>BOND
1 1 2 1
2 1 3 1
3 1 4 1
4 1 8 1
5 4 5 1
6 4 6 1
7 4 7 1
8 8 9 1
9 8 10 1
10 8 11 1

# Substitute(entry=H2,center=C1)