# Molecule Name
# Created by GaussView 6.0.16
#

#
#

@<TRIPOS>MOLECULE
Molecule Name
7 6
SMALL
NO_CHARGES


@<TRIPOS>ATOM
1 N1    -0.3337    -0.4490     0.0000 N
2 H2     0.0011    -1.3913    -0.0009 H
3 H3    -0.0019     0.0235    -0.8165 H
4 C4     0.1563     0.2440     1.2003 C
5 H5    -0.2020     1.2522     1.2012 H
6 H6    -0.1988    -0.2616     2.0739 H
7 H7     1.2263     0.2457     1.1993 H
@<TRIPOS>BOND
1 1 2 1
2 1 3 1
3 1 4 1
4 4 5 1
5 4 6 1
6 4 7 1

# Substitute(entry=H2,center=N1)