# Molecule Name
# Created by GaussView 6.0.16
#

#
#

@<TRIPOS>MOLECULE
Molecule Name
10 9
SMALL
NO_CHARGES


@<TRIPOS>ATOM
1 N1    -0.3337    -0.4490     0.0000 N
2 H2    -0.0019     0.0235    -0.8165 H
3 C3     0.1563     0.2440     1.2003 C
4 H4    -0.2020     1.2522     1.2012 H
5 H5    -0.1988    -0.2616     2.0739 H
6 H6     1.2263     0.2457     1.1993 H
7 C7     0.1585    -1.8342    -0.0013 C
8 H8    -0.1967    -2.3397     0.8723 H
9 H9    -0.1982    -2.3386    -0.8750 H
10 H10     1.2284    -1.8325    -0.0023 H
@<TRIPOS>BOND
1 1 2 1
2 1 3 1
3 1 7 1
4 3 4 1
5 3 5 1
6 3 6 1
7 7 8 1
8 7 9 1
9 7 10 1

# Substitute(entry=H2,center=N1)