# Title
# Created by GaussView 6.0.16
#

#
#

@<TRIPOS>MOLECULE
Molecule Name
6 5
SMALL
NO_CHARGES


@<TRIPOS>ATOM
1 C1    -0.7500    -0.1500     0.0000 C
2 H2    -0.3933    -1.1588     0.0000 H
3 H3    -0.3933     0.3544    -0.8737 H
4 H4    -1.8200    -0.1500     0.0000 H
5 O5    -0.2733     0.5241     1.1676 O
6 H6    -0.5917     1.4298     1.1671 H
@<TRIPOS>BOND
1 1 2 1
2 1 3 1
3 1 4 1
4 1 5 1
5 5 6 1

# Substitute(entry=H6,center=O5)