# Title
# Created by GaussView 6.0.16
#

#
#

@<TRIPOS>MOLECULE
Molecule Name
12 12
SMALL
NO_CHARGES


@<TRIPOS>ATOM
1 C1    -2.0328    -0.7524     0.0000 C
2 C2    -0.6376    -0.7524     0.0000 C
3 C3     0.0599     0.4553     0.0000 C
4 C4    -0.6377     1.6638    -0.0012 C
5 C5    -2.0325     1.6638    -0.0017 C
6 C6    -2.7301     0.4555    -0.0007 C
7 H7    -2.5825    -1.7047     0.0004 H
8 H8    -0.0881    -1.7049     0.0013 H
9 H9     1.1596     0.4554     0.0006 H
10 H10    -0.0875     2.6160    -0.0013 H
11 H11    -2.5827     2.6160    -0.0026 H
12 H12    -3.8298     0.4557    -0.0009 H
@<TRIPOS>BOND
1 1 2 Ar
2 1 6 Ar
3 1 7 1
4 2 3 Ar
5 2 8 1
6 3 4 Ar
7 3 9 1
8 4 5 Ar
9 4 10 1
10 5 6 Ar
11 5 11 1
12 6 12 1

# Substitute(entry=H7,center=C1)