# Title
# Created by GaussView 6.0.16
#

#
#

@<TRIPOS>MOLECULE
Molecule Name
14 13
SMALL
NO_CHARGES


@<TRIPOS>ATOM
1 C1    -0.9284    -0.1456     0.0000 C
2 H2    -0.5717     0.3588    -0.8737 H
3 C3    -0.4151     0.5803     1.2574 C
4 H4     0.6549     0.5786     1.2584 H
5 H5    -0.7701     1.5897     1.2564 H
6 H6    -0.7733     0.0771     2.1311 H
7 C7    -0.4151    -1.5976     0.0000 C
8 H8    -0.7714    -2.1019     0.8738 H
9 H9    -0.7721    -2.1021    -0.8735 H
10 H10     0.6549    -1.5976    -0.0004 H
11 C11    -2.4684    -0.1456     0.0000 C
12 H12    -2.8251     0.8632     0.0003 H
13 H13    -2.8251    -0.6498    -0.8738 H
14 H14    -2.8251    -0.6502     0.8735 H
@<TRIPOS>BOND
1 1 2 1
2 1 3 1
3 1 7 1
4 1 11 1
5 3 4 1
6 3 5 1
7 3 6 1
8 7 8 1
9 7 9 1
10 7 10 1
11 11 12 1
12 11 13 1
13 11 14 1

# Substitute(entry=H2,center=C1)