# unknown
# Created by GaussView 6.0.16
#

#
#

@<TRIPOS>MOLECULE
Molecule Name
4 3
SMALL
NO_CHARGES


@<TRIPOS>ATOM
1 CSub     0.2733    -0.9831     3.0266 C
2 OSub    -0.1532     0.1652     2.7386 O
3 HSub1    -0.2992    -1.8480     2.7636 H
4 HSub2     1.2084    -1.0948     3.5346 H
@<TRIPOS>BOND
1 1 2 2
2 1 3 1
3 1 4 1
