@<TRIPOS>MOLECULE
name
78 0
SMALL
NO_CHARGES

@<TRIPOS>ATOM
1 Mn1 0.014758000 -0.183915000 0.272083000 Mn
2 N2 -0.154582000 1.895591000 -0.713509000 N
3 C3 0.017982000 -1.870330000 0.778553000 C
4 O4 0.004758000 -2.993935000 1.080312000 O
5 C5 2.408721000 1.065122000 -1.644939000 C
6 H6 3.455785000 1.249413000 -1.906201000 H
7 H7 1.907085000 0.721094000 -2.558727000 H
8 C8 -2.671919000 1.695350000 0.792911000 C
9 C9 0.285835000 0.467042000 1.906350000 C
10 O10 0.463423000 0.872893000 2.985419000 O
11 P11 -2.240535000 -0.036662000 0.350934000 P
12 P12 2.156154000 -0.283324000 -0.417713000 P
13 C13 2.774559000 -1.774906000 -1.314828000 C
14 C14 1.872727000 -2.663608000 -1.907204000 C
15 C15 4.146713000 -2.013476000 -1.461757000 C
16 C16 2.329907000 -3.761948000 -2.631764000 C
17 H17 0.807738000 -2.488300000 -1.802046000 H
18 C18 4.603498000 -3.108544000 -2.187938000 C
19 H19 4.868697000 -1.345843000 -1.000773000 H
20 C20 3.695420000 -3.987308000 -2.774652000 C
21 H21 1.613738000 -4.445232000 -3.079462000 H
22 H22 5.671483000 -3.278223000 -2.291793000 H
23 H23 4.052451000 -4.845951000 -3.336314000 H
24 C24 3.490958000 -0.044409000 0.830467000 C
25 C25 4.606823000 0.777685000 0.647502000 C
26 C26 3.365866000 -0.738130000 2.040169000 C
27 C27 5.565885000 0.913911000 1.649158000 C
28 H28 4.740597000 1.325133000 -0.280095000 H
29 C29 4.326808000 -0.612223000 3.037719000 C
30 H30 2.503516000 -1.378156000 2.205883000 H
31 C31 5.427675000 0.219899000 2.847083000 C
32 H32 6.421619000 1.563920000 1.489696000 H
33 H33 4.208713000 -1.156002000 3.970404000 H
34 H34 6.174284000 0.325898000 3.628862000 H
35 C35 -3.152602000 -0.356562000 -1.214543000 C
36 C36 -4.107679000 0.512934000 -1.746997000 C
37 C37 -2.878925000 -1.550319000 -1.895229000 C
38 C38 -4.764007000 0.208211000 -2.939839000 C
39 H39 -4.351809000 1.440845000 -1.240809000 H
40 C40 -3.545470000 -1.864514000 -3.073437000 C
41 H41 -2.131160000 -2.231313000 -1.498130000 H
42 C42 -4.485859000 -0.981020000 -3.603875000 C
43 H43 -5.495585000 0.902878000 -3.342760000 H
44 H44 -3.325428000 -2.796971000 -3.585164000 H
45 H45 -4.997964000 -1.220572000 -4.531340000 H
46 C46 -3.218814000 -1.013442000 1.566525000 C
47 C47 -2.620208000 -1.364896000 2.780792000 C
48 C48 -4.555139000 -1.364003000 1.345805000 C
49 C49 -3.343170000 -2.044531000 3.757241000 C
50 H50 -1.581623000 -1.109473000 2.965386000 H
51 C51 -5.276207000 -2.048336000 2.320143000 C
52 H52 -5.037945000 -1.108078000 0.407200000 H
53 C53 -4.672560000 -2.388217000 3.528468000 C
54 H54 -2.862255000 -2.310255000 4.694026000 H
55 H55 -6.312387000 -2.315817000 2.133611000 H
56 H56 -5.235723000 -2.924093000 4.287231000 H
57 Si57 -1.526098000 2.878851000 -0.131661000 Si
58 Si58 1.469838000 2.568111000 -1.009934000 Si
59 C59 -2.372675000 3.657391000 -1.618553000 C
60 H60 -3.304770000 4.160268000 -1.332114000 H
61 H61 -1.723145000 4.409137000 -2.083860000 H
62 H62 -2.617723000 2.911816000 -2.384006000 H
63 C63 -0.963083000 4.207735000 1.062709000 C
64 H64 -0.373996000 4.996451000 0.581993000 H
65 H65 -1.851662000 4.685176000 1.495936000 H
66 H66 -0.380131000 3.791431000 1.891333000 H
67 C67 1.399405000 3.907458000 -2.327500000 C
68 H68 0.890566000 3.556042000 -3.233171000 H
69 H69 0.871079000 4.799170000 -1.967933000 H
70 H70 2.408997000 4.224743000 -2.618180000 H
71 C71 2.234954000 3.258935000 0.553537000 C
72 H72 3.307953000 3.417006000 0.391047000 H
73 H73 1.804368000 4.227372000 0.825983000 H
74 H74 2.130290000 2.583207000 1.407577000 H
75 H75 -3.738152000 1.930035000 0.701392000 H
76 H76 -2.425579000 1.773392000 1.859981000 H
77 H77 -0.447977000 1.442473000 -1.582533000 H
78 H78 -0.175426000 -0.688931000 -1.243914000 H
