@<TRIPOS>MOLECULE
*****
 4 3 0 0 0
SMALL
GASTEIGER

@<TRIPOS>ATOM
      1 N           0.8553   -0.0106   -0.6797 N.3     1  UNL1       -0.3437
      2 H           1.8726    0.0024   -0.7366 H       1  UNL1        0.1146
      3 H           0.5437   -0.6855   -1.3767 H       1  UNL1        0.1146
      4 H           0.5437    0.9008   -1.0123 H       1  UNL1        0.1146
@<TRIPOS>BOND
     1     1     2    1
     2     1     3    1
     3     1     4    1
