# name
# Created by GaussView 6.0.16
#

#
#

@<TRIPOS>MOLECULE
Molecule Name
36 36
SMALL
NO_CHARGES


@<TRIPOS>ATOM
1 Mn1    -0.0051    -0.1427    -0.0735 Mn
2 N2     0.0365     1.9715     0.2778 N
3 C3    -0.0152    -1.9018    -0.3338 C
4 O4    -0.0156    -3.0463    -0.5277 O
5 C5    -2.5397     1.4349     1.3845 C
6 H6    -3.5911     1.6838     1.5572 H
7 H7    -2.0556     1.3173     2.3622 H
8 C8     2.6923     1.6986    -0.8163 C
9 C9    -0.2566     0.3018    -1.7822 C
10 O10    -0.3881     0.6771    -2.8673 O
11 P11     2.2811    -0.0092    -0.3437 P
12 P12    -2.2570    -0.1127     0.4784 P
13 Si13     1.4852     2.8580     0.1017 Si
14 Si14    -1.4699     2.7433     0.5039 Si
15 C15     2.2409     3.4100     1.7463 C
16 H16     3.2464     3.8358     1.6284 H
17 H17     1.6124     4.1895     2.1965 H
18 H18     2.3005     2.5857     2.4666 H
19 C19     1.3599     4.4084    -0.9786 C
20 H20     0.7024     5.1704    -0.5423 H
21 H21     2.3455     4.8739    -1.1146 H
22 H22     0.9682     4.1626    -1.9734 H
23 C23    -1.4401     4.2450     1.6564 C
24 H24    -0.9746     4.0008     2.6191 H
25 H25    -0.8931     5.0933     1.2272 H
26 H26    -2.4616     4.5931     1.8589 H
27 C27    -2.3455     3.2778    -1.0826 C
28 H28    -3.3631     3.6405    -0.8867 H
29 H29    -1.7931     4.0941    -1.5659 H
30 H30    -2.4157     2.4595    -1.8082 H
31 H31     3.7589     1.9332    -0.7331 H
32 H32     2.4346     1.7692    -1.8817 H
33 H33    -3.1565    -0.1461    -0.5277 H
34 H34    -2.6929    -1.1182     1.2667 H
35 H35     2.9846    -0.2761     0.7772 H
36 H36     2.9130    -0.7877    -1.2477 H
@<TRIPOS>BOND
1 1 3 1
2 1 9 1
3 1 11 1
4 1 12 1
5 2 13 Ar
6 2 14 Ar
7 3 4 3
8 5 6 1
9 5 7 1
10 5 12 1
11 5 14 1
12 8 11 1
13 8 13 1
14 8 31 1
15 8 32 1
16 9 10 3
17 11 35 1
18 11 36 1
19 12 33 1
20 12 34 1
21 13 15 1
22 13 19 1
23 14 23 1
24 14 27 1
25 15 16 1
26 15 17 1
27 15 18 1
28 19 20 1
29 19 21 1
30 19 22 1
31 23 24 1
32 23 25 1
33 23 26 1
34 27 28 1
35 27 29 1
36 27 30 1
