# unknown
# Created by GaussView 6.0.16
#

#
#

@<TRIPOS>MOLECULE
Molecule Name
36 36
SMALL
NO_CHARGES


@<TRIPOS>ATOM
1 Mn1    -0.1734    -0.6935     0.4550 Mn
2 N2     0.1022     2.3814     0.3092 N
3 C3    -0.3200    -2.6038     0.1503 C
4 O4    -0.4152    -3.8429    -0.0474 O
5 C5     1.8806     1.2315    -1.5428 C
6 H6     2.8402     1.3445    -2.0025 H
7 H7     1.1357     1.1150    -2.3020 H
8 C8    -2.6329     1.7231     0.4715 C
9 C9    -0.0322    -0.0662     2.2854 C
10 O10     0.0588     0.3413     3.4725 O
11 P11    -2.1946     0.0725    -0.2146 P
12 P12     1.8498    -0.2362    -0.4616 P
13 Si13    -1.3639     2.9945    -0.1677 Si
14 Si14     1.5057     2.7811    -0.4730 Si
15 C15    -1.4585     3.0877    -2.1031 C
16 H16    -2.4261     3.4376    -2.3964 H
17 H17    -0.7107     3.7623    -2.4647 H
18 H18    -1.2909     2.1147    -2.5157 H
19 C19    -1.6665     4.7709     0.5510 C
20 H20    -0.9146     5.4373     0.1832 H
21 H21    -2.6315     5.1191     0.2466 H
22 H22    -1.6204     4.7360     1.6194 H
23 C23     1.2976     4.3464    -1.6000 C
24 H24     0.5196     4.1714    -2.3134 H
25 H25     1.0428     5.1908    -0.9942 H
26 H26     2.2158     4.5404    -2.1141 H
27 C27     2.9137     3.1352     0.8137 C
28 H28     3.8263     3.3436     0.2955 H
29 H29     2.6441     3.9786     1.4145 H
30 H30     3.0474     2.2786     1.4409 H
31 H31    -3.6148     2.0062     0.1541 H
32 H32    -2.6046     1.6826     1.5404 H
33 H33    -3.1289    -0.7975     0.2244 H
34 H34    -2.2103     0.1291    -1.5633 H
35 H35     2.2091    -1.3084    -1.1991 H
36 H36     2.7392    -0.0360     0.5341 H
@<TRIPOS>BOND
1 1 3 1
2 1 9 1
3 1 11 1
4 1 12 1
5 2 13 Ar
6 2 14 Ar
7 3 4 2
8 5 6 1
9 5 7 1
10 5 12 1
11 5 14 1
12 8 11 1
13 8 13 1
14 8 31 1
15 8 32 1
16 9 10 2
17 11 33 1
18 11 34 1
19 12 35 1
20 12 36 1
21 13 15 1
22 13 19 1
23 14 23 1
24 14 27 1
25 15 16 1
26 15 17 1
27 15 18 1
28 19 20 1
29 19 21 1
30 19 22 1
31 23 24 1
32 23 25 1
33 23 26 1
34 27 28 1
35 27 29 1
36 27 30 1
